mvpmarch-behavior/feederdata/p1uhs0_1247--p1udt104/Loads_XZ2_G3_result.dss
!  This code is generated by Xinyang with only primary. 

New Load.TR(R:P1UDT1-P1UDT1LV)_G3 Bus1= G3_P1UDT1.1.2.3 Phase=3 Conn=Wye Model=1 kV=7.2 kW=0 kvar=0
New Load.TR(R:P1UDT2-P1UDT2LV)_G3 Bus1= G3_P1UDT2.2 Phase=1 Conn=Wye Model=1 kV=7.2 kW=0 kvar=0
New Load.TR(R:P1UDT61-P1UDT61LV)_G3 Bus1= G3_P1UDT61.1.2.3 Phase=3 Conn=Wye Model=1 kV=7.2 kW=-545.8135207236261 kvar=0
New Load.TR(R:P1UDT62-P1UDT62LV)_G3 Bus1= G3_P1UDT62.1.2.3 Phase=3 Conn=Wye Model=1 kV=7.2 kW=0 kvar=0
New Load.TR(R:P1UDT104-P1UDT104LV)_G3 Bus1= G3_P1UDT104.1 Phase=1 Conn=Wye Model=1 kV=7.2 kW=0 kvar=0
New Load.TR(R:P1UDT175-P1UDT175LV)_G3 Bus1= G3_P1UDT175.1.2.3 Phase=3 Conn=Wye Model=1 kV=7.2 kW=0 kvar=0
New Load.TR(R:P1UDT201-P1UDT201LV)_G3 Bus1= G3_P1UDT201.1.2.3 Phase=3 Conn=Wye Model=1 kV=7.2 kW=0 kvar=0
New Load.TR(R:P1UDT228-P1UDT228LV)_G3 Bus1= G3_P1UDT228.1.2.3 Phase=3 Conn=Wye Model=1 kV=7.2 kW=-760.0950378628581 kvar=0
New Load.TR(R:P1UDT258-P1UDT258LV)_G3 Bus1= G3_P1UDT258.1.2.3 Phase=3 Conn=Wye Model=1 kV=7.2 kW=0 kvar=0
New Load.TR(R:P1UDT259-P1UDT259LV)_G3 Bus1= G3_P1UDT259.1.2.3 Phase=3 Conn=Wye Model=1 kV=7.2 kW=0 kvar=0
New Load.TR(R:P1UDT454-P1UDT454LV)_G3 Bus1= G3_P1UDT454.1.2.3 Phase=3 Conn=Wye Model=1 kV=7.2 kW=-534.1782261316011 kvar=0
New Load.TR(R:P1UDT471-P1UDT471LV)_G3 Bus1= G3_P1UDT471.2 Phase=1 Conn=Wye Model=1 kV=7.2 kW=0 kvar=0
